/*--------------------------------*- C++ -*----------------------------------*\
| =========                 |                                                 |
| \\      /  F ield         | OpenFOAM: The Open Source CFD Toolbox           |
|  \\    /   O peration     | Version:  2.3.0                                 |
|   \\  /    A nd           | Web:      www.OpenFOAM.com                      |
|    \\/     M anipulation  |                                                 |
\*---------------------------------------------------------------------------*/
FoamFile
{
    version     2.0;
    format      ascii;
    class       dictionary;
    location    "constant";
    object      forceProperties;
}
// * * * * * * * * * * * * * * * * * * * * * * * * * * * * * * * * * * * * * //

// * * * * * * * * * * * * * following are for presure * * * * * * * * * * * * * * * //
tilt            tilt [ 0 0 0 0 0 0 0 ] 0;
gradPAMP1        gradPAMP1 [ 1 -2 -2 0 0 0 0 ] (0 0 0 );     // pressure osci amp
gradPAMP2        gradPAMP2 [ 1 -2 -2 0 0 0 0 ] ( 0 0 0 );     // pressure osci amp
gradPOSC        gradPOSC [ 1 -2 -2 0 0 0 0 ] (0 0 0 );  // pressure osci real value
gradPMEAN       gradPMEAN [ 1 -2 -2 0 0 0 0 ] (0 0 0 );  //mean pressure
oscpT           oscpT [ 0 0 0 0 0 0 0 ] 5.0;       // osci period
initTheta       initTheta [ 0 0 0 0 0 0 0] 0;    //initial deg since osci pressure is programed with sin
alphaMinFriction alphaMinFriction [ 0 0 0 0 0 0 0 ] 0.57;
InitFreeze       InitFreeze  [0 0 0 0 0 0 0 ] 0;
alphacut       alphacut  [0 0 0 0 0 0 0 ] 0.0001;
alphaSmall      alphaSmall [0 0 0 0 0 0 0 ] 1e-5;
// * * * * * * * * * * * * end of definition of pressure * * * * * * * * * * * * * //
